$ ======================================================================
$                       SOL 145 - flutter Analysis 
$ ======================================================================
$
$ ------------------   File Management Section   -----------------------
$ ASSIGN OUTPUT4 = 'btb.f50',UNIT = 50,FORM=FORMATTED        
$
$ ------------------   Executive Control Deck    -----------------------
$
ID                  MSC.NASTRAN NORMAL MODES ANALYSIS
SOL                 145
TIME                5000
$
$ ------------------   Executive Control Deck    -----------------------
$
CEND
$
$ ------------------   Case Control Deck   -----------------------------
$
TITLE               = AEROELASTIC STUDY FLUTTER
SUBTITLE            = (SOL145)
$
ECHO                = NONE
SEALL               = ALL
SPC                 = 2
RSDAMP              = 30
METHOD              = 200
FMETHOD             = 300
RESVEC              = NO
DISPLACEMENT(PLOT)  = ALL
$
$...1...|...2...|...3...|...4...|...5...|...6...|...7...|...8...|...9...|..10...
PARAM   POST    -1
PARAM   GRDPNT  0
PARAM   OPPHIPA 1
$
$...1...|...2...|...3...|...4...|...5...|...6...|...7...|...8...|...9...|..10...
$ Elements and Element Properties for region : 2dShell
PSHELL   1       1       .05     1               1
$ Pset: "2dShell" will be imported as: "pshell.1"
CTRIA3   1       1       1       2       4
CQUAD4   2       1       2       3       5       4
CQUAD4   3       1       3       5       9       8
CQUAD4   4       1       8       9       11      10
CQUAD4   5       1       10      11      13      12
CQUAD4   6       1       12      13      15      14
CQUAD4   7       1       14      17      19      15
CTRIA3   8       1       17      20      19
CTRIA3   9       1       21      22      24
CQUAD4   10      1       22      23      25      24
CQUAD4   11      1       23      25      29      28
CQUAD4   12      1       28      29      31      30
CQUAD4   13      1       30      31      33      32
CQUAD4   14      1       32      33      35      34
CQUAD4   15      1       34      37      39      35
CTRIA3   16      1       37      40      39
CQUAD4   17      1       41      42      44      43
CQUAD4   18      1       43      44      46      45
CQUAD4   19      1       45      46      48      47
CQUAD4   20      1       47      48      50      49
CQUAD4   21      1       49      50      52      51
CQUAD4   22      1       51      52      54      53
CQUAD4   23      1       53      54      56      55
CQUAD4   24      1       55      56      5       3
CQUAD4   25      1       3       5       62      61
CQUAD4   26      1       61      62      64      63
CQUAD4   27      1       63      64      66      65
CQUAD4   28      1       65      66      68      67
CQUAD4   29      1       67      68      70      69
CQUAD4   30      1       69      70      72      71
CQUAD4   31      1       71      72      74      73
CQUAD4   32      1       73      74      25      23
CQUAD4   33      1       77      78      80      79
CQUAD4   34      1       79      80      82      81
CQUAD4   35      1       81      82      84      83
CQUAD4   36      1       83      84      86      85
$ ... 268 like lines cut
$ Referenced Material Records
$ Material Record : Alum
$ Description of Material : Date: 30-Dec-25           Time: 11:22:38
MAT1*    1               6.9000004+10                    .3
*        2770.
$ Multipoint Constraints of the Entire Model
RBE3     305             1       123456  1.      123456  1000
RBE3     306             2       123456  1.      123456  1001
RBE3     307             3       123456  1.      123456  1002
RBE3     308             8       123456  1.      123456  1003
RBE3     309             10      123456  1.      123456  1004
RBE3     310             12      123456  1.      123456  1005
RBE3     311             14      123456  1.      123456  1006
RBE3     312             17      123456  1.      123456  1007
RBE3     313             20      123456  1.      123456  1008
RBE3     314             21      123456  1.      123456  1081
RBE3     315             22      123456  1.      123456  1082
RBE3     316             23      123456  1.      123456  1083
RBE3     317             28      123456  1.      123456  1084
RBE3     318             30      123456  1.      123456  1085
RBE3     319             32      123456  1.      123456  1086
RBE3     320             34      123456  1.      123456  1087
RBE3     321             37      123456  1.      123456  1088
RBE3     322             40      123456  1.      123456  1089
RBE3     323             41      123456  1.      123456  1009
RBE3     324             43      123456  1.      123456  1010
$ ... 286 like lines cut
$ Nodes of the Entire Model
GRID     1               4.      0.      0.
GRID     2               4.      .5      .125
GRID     3               4.      1.      .25
GRID     4               4.      .5      -.125
GRID     5               4.      1.      -.25
GRID     8               4.      1.5     .25
GRID     9               4.      1.5     -.25
GRID     10              4.      2.      .25
GRID     11              4.      2.      -.25
GRID     12              4.      2.5     .25
GRID     13              4.      2.5     -.25
GRID     14              4.      3.      .25
GRID     15              4.      3.      -.25
GRID     17              4.      3.5     .125
GRID     19              4.      3.5     -.125
GRID     20              4.      4.      0.
GRID     21              8.      0.      0.
GRID     22              8.      .5      .125
GRID     23              8.      1.      .25
GRID     24              8.      .5      -.125
$ ... 165 like lines cut
GRID*    341                            1.50000011920929 1.5
*        .25
GRID     342             2.      1.5     .25
GRID     343             2.5     1.5     .25
GRID     344             3.      1.5     .25
GRID     345             3.5     1.5     .25
GRID     347             0.      2.      .25
GRID     348             .5      2.      .25
GRID     349             1.      2.      .25
GRID*    350                            1.50000011920929 2.
*        .25
GRID     351             2.      2.      .25
GRID     352             2.5     2.      .25
GRID     353             3.      2.      .25
GRID     354             3.5     2.      .25
GRID     356             0.      2.5     .25
GRID     357             .5      2.5     .25
GRID     358             1.      2.5     .25
GRID*    359                            1.50000011920929 2.5
*        .25
GRID     360             2.      2.5     .25
GRID     361             2.5     2.5     .25
GRID     362             3.      2.5     .25
GRID     363             3.5     2.5     .25
GRID     384             4.5     1.5     .25
GRID     385             5.      1.5     .25
GRID     386             5.5     1.5     .25
GRID     387             6.      1.5     .25
GRID     388             6.5     1.5     .25
GRID     389             7.      1.5     .25
GRID     390             7.5     1.5     .25
GRID     393             4.5     2.      .25
GRID     394             5.      2.      .25
GRID     395             5.5     2.      .25
GRID     396             6.      2.      .25
GRID     397             6.5     2.      .25
GRID     398             7.      2.      .25
GRID     399             7.5     2.      .25
GRID     402             4.5     2.5     .25
GRID     403             5.      2.5     .25
$ ... 8 like lines cut
GRID*    431                            1.50000011920929 1.5
*        -.25
GRID     432             2.      1.5     -.25
GRID     433             2.5     1.5     -.25
GRID     434             3.      1.5     -.25
GRID     435             3.5     1.5     -.25
GRID     437             0.      2.      -.25
GRID     438             .5      2.      -.25
GRID     439             1.      2.      -.25
GRID*    440                            1.50000011920929 2.
*        -.25
GRID     441             2.      2.      -.25
GRID     442             2.5     2.      -.25
GRID     443             3.      2.      -.25
GRID     444             3.5     2.      -.25
GRID     446             0.      2.5     -.25
GRID     447             .5      2.5     -.25
GRID     448             1.      2.5     -.25
GRID*    449                            1.50000011920929 2.5
*        -.25
GRID     450             2.      2.5     -.25
GRID     451             2.5     2.5     -.25
GRID     452             3.      2.5     -.25
GRID     453             3.5     2.5     -.25
GRID     474             4.5     1.5     -.25
GRID     475             5.      1.5     -.25
GRID     476             5.5     1.5     -.25
GRID     477             6.      1.5     -.25
GRID     478             6.5     1.5     -.25
GRID     479             7.      1.5     -.25
GRID     480             7.5     1.5     -.25
GRID     483             4.5     2.      -.25
GRID     484             5.      2.      -.25
GRID     485             5.5     2.      -.25
GRID     486             6.      2.      -.25
GRID     487             6.5     2.      -.25
GRID     488             7.      2.      -.25
GRID     489             7.5     2.      -.25
GRID     492             4.5     2.5     -.25
GRID     493             5.      2.5     -.25
$ ... 17 like lines cut
GRID*    1012                           1.50000011920929 1.
*        0.
GRID     1013            2.      1.      0.
GRID*    1014                           2.49999976158142 1.
*        0.
GRID*    1015                           2.99999976158142 1.
*        0.
GRID     1016            3.5     1.      0.
GRID     1017            0.      3.      0.
GRID     1018            .5      3.      0.
GRID     1019            1.      3.      0.
GRID*    1020                           1.50000011920929 3.
*        0.
GRID     1021            2.      3.      0.
GRID*    1022                           2.49999976158142 3.
*        0.
GRID*    1023                           2.99999976158142 3.
*        0.
GRID     1024            3.5     3.      0.
GRID     1025            0.      0.      0.
GRID     1026            0.      .5      0.
GRID     1027            .5      0.      0.
GRID     1028            .5      .5      0.
GRID     1029            1.      0.      0.
GRID     1030            1.      .5      0.
GRID*    1031                           1.50000011920929 0.
*        0.
GRID*    1032                           1.50000011920929 .5
*        0.
GRID     1033            2.      0.      0.
GRID     1034            2.      .5      0.
GRID*    1035                           2.49999976158142 0.
*        0.
GRID*    1036                           2.49999976158142 .5
*        0.
GRID*    1037                           2.99999976158142 0.
*        0.
GRID*    1038                           2.99999976158142 .5
*        0.
GRID     1039            3.5     0.      0.
GRID     1040            3.5     .5      0.
GRID     1041            0.      3.5     0.
GRID     1042            0.      4.      0.
GRID     1043            .5      3.5     0.
GRID     1044            .5      4.      0.
GRID     1045            1.      3.5     0.
GRID     1046            1.      4.      0.
GRID*    1047                           1.50000011920929 3.5
*        0.
GRID*    1048                           1.50000011920929 4.
*        0.
GRID     1049            2.      3.5     0.
GRID     1050            2.      4.      0.
GRID*    1051                           2.49999976158142 3.5
*        0.
GRID*    1052                           2.49999976158142 4.
*        0.
GRID*    1053                           2.99999976158142 3.5
*        0.
GRID*    1054                           2.99999976158142 4.
*        0.
GRID     1055            3.5     3.5     0.
GRID     1056            3.5     4.      0.
GRID     1057            0.      1.5     0.
GRID     1058            .5      1.5     0.
GRID     1059            1.      1.5     0.
GRID*    1060                           1.50000023841858 1.5
*        0.
GRID     1061            2.      1.5     0.
GRID*    1062                           2.49999976158142 1.5
*        0.
GRID*    1063                           2.99999976158142 1.5
*        0.
GRID     1064            3.5     1.5     0.
GRID     1065            0.      2.      0.
GRID     1066            .5      2.      0.
GRID     1067            1.      2.      0.
GRID*    1068                           1.50000023841858 2.
*        0.
GRID     1069            2.      2.      0.
GRID*    1070                           2.49999976158142 2.
*        0.
GRID*    1071                           2.99999976158142 2.
*        0.
GRID     1072            3.5     2.      0.
GRID     1073            0.      2.5     0.
GRID     1074            .5      2.5     0.
GRID     1075            1.      2.5     0.
GRID*    1076                           1.50000023841858 2.5
*        0.
GRID     1077            2.      2.5     0.
GRID*    1078                           2.49999976158142 2.5
*        0.
GRID*    1079                           2.99999976158142 2.5
*        0.
GRID     1080            3.5     2.5     0.
GRID     1081            8.      0.      0.
GRID     1082            8.      .5      0.
GRID     1083            8.      1.      0.
GRID     1084            8.      1.5     0.
GRID     1085            8.      2.      0.
GRID     1086            8.      2.5     0.
GRID     1087            8.      3.      0.
GRID     1088            8.      3.5     0.
GRID     1089            8.      4.      0.
GRID     1090            4.5     1.      0.
GRID     1091            5.      1.      0.
GRID     1092            5.5     1.      0.
GRID     1093            6.      1.      0.
GRID     1094            6.5     1.      0.
GRID     1095            7.      1.      0.
GRID     1096            7.5     1.      0.
GRID     1097            4.5     3.      0.
GRID     1098            5.      3.      0.
GRID     1099            5.5     3.      0.
$ ... 53 like lines cut
$
SPCADD   2       1
$ Displacement Constraints of Load Set : RootFix
SPC1     1       123456  41      42      77      78      113     114
         168     169     222     276     338     347     356     428
         437     446
$ Referenced Coordinate Frames
$
$ Aero coordinate system: X_aero=+Y_struct, Z_aero=+Z_struct  => Y_aero=-X_struct
$...1...|...2...|...3...|...4...|...5...|...6...|...7...|...8...|...9...|..10...
CORD2R  10      0       0.0     0.0     0.0     0.0     0.0     1.0     +
+       0.0     1.0     0.0
$
$...1...|...2...|...3...|...4...|...5...|...6...|...7...|...8...|...9...|..10...
DAMPING 30      0.03
$
$...1...|...2...|...3...|...4...|...5...|...6...|...7...|...8...|...9...|..10...
CAERO1  101001  100000  10                      101     151     1       +
+       0.0     0.0     0.0     4.0      0.0    -8.0    0.0     4.0
$...1...|...2...|...3...|...4...|...5...|...6...|...7...|...8...|...9...|..10...
PAERO1  100000
$...1...|...2...|...3...|...4...|...5...|...6...|...7...|...8...|...9...|..10...
AEFACT  101     0.0000  0.0625  0.1250  0.1875  0.2500  0.3167  0.3834  +
+       0.4483  0.5117  0.5725  0.6317  0.6892  0.7450  0.7992  0.8525  +
+       0.9042  0.9534  1.0000  
$...1...|...2...|...3...|...4...|...5...|...6...|...7...|...8...|...9...|..10...
AEFACT  151     0.0000  0.1091  0.2182  0.3886  0.5614  0.7273  0.8705  +
+       1.0000
$...1...|...2...|...3...|...4...|...5...|...6...|...7...|...8...|...9...|..10...
SPLINE1 101002  101001  101001  101112  101003
SET1    101003  1000    THRU    1152
$
$ Modal Analysis
$ 
$...1...|...2...|...3...|...4...|...5...|...6...|...7...|...8...|...9...|..10...
EIGR     200     AGIV                            10
         MASS
$
$ Flight Conditions  -->  V: 200 Kts     M: 0.302   h: 0 ft
$
$...1...|...2...|...3...|...4...|...5...|...6...|...7...|...8...|...9...|..10...
PARAM   MACH    0.8000
PARAM   Q       15455.38
$...1...|...2...|...3...|...4...|...5...|...6...|...7...|...8...|...9...|..10...
$               VELOCITY  REFC  RHOREF  SIMXZ
AERO    10      1.0     4.0     1.225   1       0
$
$ Flutter Analysis
$
PARAM   VREF    1.
$
$...1...|...2...|...3...|...4...|...5...|...6...|...7...|...8...|...9...|..10...
$               METHOD  DENS    MACH    VEL     IMETH
FLUTTER 300     PKNL    100     200     300     L               
$
$...1...|...2...|...3...|...4...|...5...|...6...|...7...|...8...|...9...|..10...
MKAERO1 0.1000  0.1500  0.2000  0.2500  0.3000  0.3500  0.4000  0.4500  +
+       1.0000  0.9000  0.8000  0.7000  0.6000  0.5000  0.4000  0.3000
$
MKAERO1 0.5000  0.5500  0.6000  0.6500  0.7000  0.7500  0.800           +
+       0.2000  0.1000  0.0100
$...1...|...2...|...3...|...4...|...5...|...6...|...7...|...8...|...9...|..10...
FLFACT  100     1.225   1.225   1.225   1.225   1.225   1.225   1.225   +
+       1.225   1.225   1.225   1.225   1.225   1.225   1.225   1.225
$
FLFACT  200     0.1     0.15    0.2	    0.25    0.3	    0.35    0.4	    +
+       0.45    0.5     0.55    0.6	    0.65    0.7	    0.75    0.8
$         
FLFACT  300     34.0    51.0    68.1    85.1    102.1   119.1   136.1   +
+       153.1   170.1	187.2   204.2   221.2   238.2   255.2   272.2
PARAM   AUTOMSET YES
$
ENDDATA