$ ======================================================================
$                    TEMPLATE SOL 145 - FLUTTER ANALYSIS
$ ======================================================================
$ Purpose:
$   - Keep solver/control/aero/flutter setup in a reusable template.
$   - Mesh-related cards are intentionally excluded and will be generated
$     later from geometry/structural inputs.
$ ======================================================================
$
$ ----------------------- Executive Control Deck ------------------------
$ Defines the solution sequence and top-level run controls.
$
ID                  MSC.NASTRAN FLUTTER TEMPLATE
SOL                 145
TIME                5000
CEND
$
$ ------------------------- Case Control Deck ---------------------------
$ Selects subcase requests and analysis methods used in SOL 145.
$
TITLE               = AEROELASTIC STUDY FLUTTER
SUBTITLE            = (SOL145 TEMPLATE - MESH GENERATED)
ECHO                = NONE
SEALL               = ALL
SPC                 = 2
RSDAMP              = 30
METHOD              = 200
FMETHOD             = 300
RESVEC              = NO
DISPLACEMENT(PLOT)  = ALL
$
$ ---------------------- Bulk Data - Global Params ----------------------
$ General run parameters.
$
PARAM   POST    -1
PARAM   GRDPNT  0
PARAM   OPPHIPA 1
$
$ ------------------------- Mesh Placeholders ---------------------------
$ The following sections are generated by the toolbox and intentionally
$ not present here:
$   - GRID / CQUAD4 / CTRIA3
$   - RBE3 and other mesh-coupling cards
$   - Element properties tied to generated elements
$
$ [AUTO_MESH_BEGIN]
$   (generated structural/aero mesh cards go here)
$ [AUTO_MESH_END]
$
$ ---------------------------- Material Data ----------------------------
$ Base material definition kept from the original model.
$
MAT1*    1               6.9000004+10                    .3
*        2770.
$
$ ------------------------- Constraint Placeholders ---------------------
$ Constraint cards that depend on generated node IDs should be emitted by
$ the preprocessor in the AUTO_MESH block or a dedicated generated block.
$
$ Example target cards (generated later):
$   SPCADD, SPC1, SUPORT, etc.
$
$ ------------------------ Coordinate Definition ------------------------
$ Aero coordinate system:
$   X_aero = +Y_struct, Z_aero = +Z_struct, Y_aero = -X_struct
$
CORD2R  10      0       0.0     0.0     0.0     0.0     0.0     1.0     +
+       0.0     1.0     0.0
$
$ -------------------------- Structural Damping -------------------------
$ Modal/structural damping reference used in case control (RSDAMP = 30).
$
DAMPING 30      0.03
$
$ ---------------------------- Aero Geometry ----------------------------
$ CAERO/PAERO definitions plus aerodynamic panel spacing factors.
$ The SET/SPLINE cards that reference generated structural IDs should be
$ adapted by the preprocessor after mesh generation.
$
CAERO1  101001  100000  10                      101     151     1       +
+       0.0     0.0     0.0     4.0      0.0    -8.0    0.0     4.0
PAERO1  100000
AEFACT  101     0.0000  0.0625  0.1250  0.1875  0.2500  0.3167  0.3834  +
+       0.4483  0.5117  0.5725  0.6317  0.6892  0.7450  0.7992  0.8525  +
+       0.9042  0.9534  1.0000
AEFACT  151     0.0000  0.1091  0.2182  0.3886  0.5614  0.7273  0.8705  +
+       1.0000
$
$ Placeholder coupling cards (update with generated IDs):
$ SPLINE1  <ID>  <CAERO>  <BOX1>  <BOX2>  <SETID>
$ SET1     <SETID> <GRID LIST>
$
$ ---------------------------- Modal Analysis ---------------------------
$ Real eigenvalue extraction setup used by flutter solution.
$
EIGR     200     AGIV                            10
         MASS
$
$ ---------------------- Flight Condition Parameters --------------------
$ Reference flight condition and aero constants.
$
PARAM   MACH    0.8000
PARAM   Q       15455.38
$
$               VELOCITY  REFC  RHOREF  SYMXZ  SYMXY
AERO    10      1.0       4.0   1.225   1      0
$
$ --------------------------- Flutter Controls --------------------------
$ Flutter method and FLFACT tables (density, Mach, velocity).
$
PARAM   VREF    1.
$
$               METHOD  DENS    MACH    VEL     IMETH
FLUTTER 300     PKNL    100     200     300     L
$
MKAERO1 0.1000  0.1500  0.2000  0.2500  0.3000  0.3500  0.4000  0.4500  +
+       1.0000  0.9000  0.8000  0.7000  0.6000  0.5000  0.4000  0.3000
MKAERO1 0.5000  0.5500  0.6000  0.6500  0.7000  0.7500  0.8000          +
+       0.2000  0.1000  0.0100
$
FLFACT  100     1.225   1.225   1.225   1.225   1.225   1.225   1.225   +
+       1.225   1.225   1.225   1.225   1.225   1.225   1.225   1.225
FLFACT  200     0.1     0.15    0.2     0.25    0.3     0.35    0.4     +
+       0.45    0.5     0.55    0.6     0.65    0.7     0.75    0.8
FLFACT  300     34.0    51.0    68.1    85.1    102.1   119.1   136.1   +
+       153.1   170.1   187.2   204.2   221.2   238.2   255.2   272.2
$
PARAM   AUTOMSET YES
$
ENDDATA

